const char *g_gpgpusim_version_string = "GPGPU-Sim Simulator Version 3.2.2 (TEST BUILD)";
const char *g_gpgpusim_build_string   =  "$Change: 17315 $"; 
